! STEOM-DLPNO-CCSD RIJK def2-TZVP def2/JK def2-TZVP/C verytightSCF CPCM(Water)
%maxcore 1500
%pal
nprocs 8
end
%mdci 
nroots 10
DoSOLV true
maxiter 100
end
* xyz 0 1
H  7.610000  8.549000  6.561000
C  6.662000  8.314000  7.005000
C  6.434000  7.785000  8.245000
H  7.243000  7.476000  8.875000
C  5.088000  7.353000  8.644000
H  4.879000  6.817000  9.643000
C  3.990000  7.639000  7.837000
O  2.614000  7.417000  8.095000
C  4.272000  8.336000  6.625000
C  5.553000  8.644000  6.198000
H  5.754000  9.029000  5.203000
O  3.149000  8.680000  5.949000
C  2.246000  6.947000  9.376000
H  2.753000  7.584000  10.096000
H  1.137000  7.024000  9.547000
H  2.556000  5.854000  9.524000
C  3.281000  9.349000  4.714000
H  2.250000  9.760000  4.470000
H  3.956000  10.228000  4.696000
H  3.510000  8.621000  3.915000
*