! STEOM-DLPNO-CCSD RIJK def2-TZVP def2/JK def2-TZVP/C verytightSCF CPCM(Water)
%maxcore 1500
%pal
nprocs 8
end
%mdci 
nroots 10
DoSOLV true
maxiter 100
end
* xyz 0 1
H  7.265000  5.258000  9.341000
C  7.035000  4.736000  8.415000
C  5.808000  4.785000  7.786000
H  4.887000  5.239000  8.214000
C  5.796000  4.355000  6.417000
O  4.562000  4.499000  5.796000
C  6.854000  3.742000  5.754000
H  6.935000  3.482000  4.658000
C  8.077000  3.727000  6.483000
C  8.191000  4.257000  7.838000
H  9.025000  4.446000  8.501000
O  9.262000  3.072000  5.975000
C  9.372000  3.038000  4.562000
H  9.073000  3.991000  4.076000
H  10.492000  2.852000  4.379000
H  8.866000  2.146000  4.096000
C  4.552000  4.276000  4.350000
H  4.901000  3.235000  4.207000
H  3.516000  4.337000  4.066000
H  5.239000  5.011000  3.934000
*