! STEOM-DLPNO-CCSD RIJK def2-TZVP def2/JK def2-TZVP/C verytightSCF CPCM(Water)
%maxcore 1500
%pal
nprocs 8
end
%mdci 
nroots 10
DoSOLV true
maxiter 100
end
* xyz 0 1
O  14.283000  10.448000  10.937000
C  12.982000  10.933000  10.980000
C  12.591000  12.176000  11.503000
H  13.225000  12.814000  12.103000
C  11.288000  12.655000  11.250000
H  10.948000  13.562000  11.710000
C  10.314000  11.883000  10.545000
N  9.027000  12.355000  10.203000
H  8.425000  11.584000  9.931000
H  8.623000  13.193000  10.628000
C  10.662000  10.567000  10.117000
H  9.814000  9.981000  9.729000
C  11.986000  10.081000  10.317000
H  12.209000  9.042000  10.113000
C  14.858000  10.718000  9.644000
H  15.871000  10.319000  9.717000
H  14.252000  10.285000  8.838000
H  14.924000  11.854000  9.540000
*