! STEOM-DLPNO-CCSD RIJK def2-TZVP def2/JK def2-TZVP/C verytightSCF CPCM(Water)
%maxcore 1500
%pal
nprocs 8
end
%mdci 
nroots 10
DoSOLV true
maxiter 100
end
* xyz 0 1
H  13.757000  0.173000  13.148000
C  12.680000  0.436000  13.391000
C  11.715000 -0.440000  13.849000
O  12.001000 -1.804000  14.120000
C  10.493000  0.189000  14.157000
H  9.747000 -0.437000  14.620000
C  10.285000  1.539000  14.103000
H  9.370000  2.033000  14.369000
C  11.329000  2.397000  13.705000
C  12.537000  1.795000  13.281000
H  13.324000  2.336000  12.817000
O  11.066000  3.761000  13.665000
H  11.895000  4.249000  13.270000
H  11.056000 -2.315000  14.113000
*