! STEOM-DLPNO-CCSD RIJK def2-TZVP def2/JK def2-TZVP/C verytightSCF CPCM(Water)
%maxcore 1500
%pal
nprocs 8
end
%mdci 
nroots 10
DoSOLV true
maxiter 100
end
* xyz 0 1
H  13.704000  4.239000  6.885000
C  13.321000  4.960000  7.631000
C  13.505000  6.357000  7.522000
O  14.264000  6.934000  6.453000
C  13.038000  7.174000  8.570000
H  13.207000  8.220000  8.457000
C  12.329000  6.686000  9.729000
H  11.967000  7.366000  10.488000
C  12.094000  5.265000  9.759000
C  12.602000  4.440000  8.677000
H  12.532000  3.378000  8.963000
O  11.281000  4.661000  10.686000
C  10.240000  5.504000  11.349000
H  10.654000  6.349000  11.945000
H  9.529000  5.801000  10.525000
H  9.758000  4.773000  12.032000
C  13.422000  7.407000  5.355000
H  12.940000  6.636000  4.760000
H  12.762000  8.180000  5.732000
H  14.138000  7.889000  4.655000
*