! STEOM-DLPNO-CCSD RIJK def2-TZVP def2/JK def2-TZVP/C verytightSCF CPCM(Water)
%maxcore 1500
%pal
nprocs 8
end
%mdci 
nroots 10
DoSOLV true
maxiter 100
end
* xyz 0 1
H  15.031000  12.493000  12.651000
C  15.105000  13.175000  13.459000
C  13.964000  13.399000  14.203000
H  13.098000  12.760000  14.083000
C  13.949000  14.379000  15.221000
H  13.130000  14.369000  15.887000
C  15.060000  15.164000  15.491000
N  15.095000  16.058000  16.622000
H  15.968000  16.617000  16.504000
H  14.291000  16.703000  16.761000
C  16.252000  14.893000  14.758000
H  17.174000  15.384000  15.046000
C  16.244000  13.952000  13.681000
H  17.214000  13.853000  13.097000
*