! STEOM-DLPNO-CCSD RIJK def2-TZVP def2/JK def2-TZVP/C verytightSCF CPCM(Water)
%maxcore 1500
%pal
nprocs 8
end
%mdci 
nroots 10
DoSOLV true
maxiter 100
end
* xyz 0 1
H  5.742000  1.969000  7.081000
C  5.562000  2.887000  6.470000
C  4.716000  2.771000  5.379000
H  4.393000  1.823000  4.825000
C  4.492000  3.930000  4.529000
H  3.924000  3.742000  3.565000
C  4.998000  5.205000  4.841000
H  4.726000  6.081000  4.241000
C  5.827000  5.253000  6.010000
C  6.142000  4.136000  6.777000
H  6.764000  4.288000  7.687000
O  6.447000  6.447000  6.447000
C  6.443000  7.589000  5.602000
H  7.170000  8.323000  6.082000
H  6.680000  7.323000  4.616000
H  5.476000  7.987000  5.539000
*