! STEOM-DLPNO-CCSD RIJK def2-TZVP def2/JK def2-TZVP/C verytightSCF CPCM(Water)
%maxcore 1500
%pal
nprocs 8
end
%mdci 
nroots 10
DoSOLV true
maxiter 100
end
* xyz 0 1
H  6.578000  1.765000  7.451000
C  5.858000  2.598000  7.356000
C  4.475000  2.591000  7.671000
H  3.883000  1.701000  7.873000
C  3.722000  3.806000  7.685000
H  2.690000  3.832000  8.039000
C  4.404000  5.020000  7.349000
H  3.808000  5.940000  7.311000
C  5.668000  4.978000  6.739000
C  6.453000  3.792000  6.870000
H  7.464000  3.803000  6.387000
O  6.200000  6.200000  6.200000
H  7.192000  6.233000  6.501000
*